data_image0
_chemical_formula_structural       Cs4Pb4I12Cs4Pb4I12
_chemical_formula_sum              "Cs8 Pb8 I24"
_cell_length_a       9.69428328
_cell_length_b       10.65044663
_cell_length_c       18.03119927
_cell_angle_alpha    90.0
_cell_angle_beta     90.0
_cell_angle_gamma    90.0

_space_group_name_H-M_alt    "P 1"
_space_group_IT_number       1

loop_
  _space_group_symop_operation_xyz
  'x, y, z'

loop_
  _atom_site_type_symbol
  _atom_site_label
  _atom_site_symmetry_multiplicity
  _atom_site_fract_x
  _atom_site_fract_y
  _atom_site_fract_z
  _atom_site_occupancy
  Cs  Cs1       1.0  0.37500014903816353  0.08118385749102498  0.6721581330708543  1.0000
  Cs  Cs2       1.0  0.12499985096185588  0.9188161425089497  0.32784186692914474  1.0000
  Cs  Cs3       1.0  0.3750001490381887  0.5811838574910261  0.8278418669291489  1.0000
  Cs  Cs4       1.0  0.12499985096188351  0.41881614250897026  0.17215813307085337  1.0000
  Pb  Pb1       1.0  0.12499829866388941  0.16140314254536878  0.9395056969650297  1.0000
  Pb  Pb2       1.0  0.37500170133612387  0.8385968574546326  0.060494303034969894  1.0000
  Pb  Pb3       1.0  0.12499829866388797  0.6614031425453649  0.5604943030349702  1.0000
  Pb  Pb4       1.0  0.37500170133610927  0.33859685745463064  0.439505696965031  1.0000
  I   I1        1.0  0.3750000330361825  0.33732918401501916  0.002023122701267056  1.0000
  I   I2        1.0  0.12499996696381742  0.6626708159849796  0.9979768772987309  1.0000
  I   I3        1.0  0.3750000330361871  0.8373291840150211  0.4979768772987379  1.0000
  I   I4        1.0  0.12499996696382853  0.16267081598498703  0.5020231227012653  1.0000
  I   I5        1.0  0.12499997039076621  0.029308802701594232  0.11214886481043043  1.0000
  I   I6        1.0  0.3750000296092478  0.970691197298407  0.8878511351895745  1.0000
  I   I7        1.0  0.12499997039076727  0.5293088027015932  0.38785113518956826  1.0000
  I   I8        1.0  0.37500002960925105  0.470691197298405  0.6121488648104351  1.0000
  I   I9        1.0  0.12499994795171934  0.2967165179524587  0.7869852407039013  1.0000
  I   I10       1.0  0.37500005204828474  0.7032834820475474  0.21301475929609362  1.0000
  I   I11       1.0  0.12499994795173437  0.7967165179524555  0.7130147592960973  1.0000
  I   I12       1.0  0.3750000520482991  0.20328348204754315  0.2869852407039  1.0000
  Cs  Cs5       1.0  0.8750001490381434  0.08118385749104985  0.6721581330708557  1.0000
  Cs  Cs6       1.0  0.6249998509618364  0.9188161425089755  0.3278418669291458  1.0000
  Cs  Cs7       1.0  0.8750001490381161  0.5811838574910297  0.8278418669291466  1.0000
  Cs  Cs8       1.0  0.6249998509618113  0.418816142508974  0.17215813307085143  1.0000
  Pb  Pb5       1.0  0.6249982986638761  0.16140314254536736  0.9395056969650293  1.0000
  Pb  Pb6       1.0  0.8750017013361105  0.8385968574546306  0.0604943030349711  1.0000
  Pb  Pb7       1.0  0.6249982986638907  0.6614031425453698  0.5604943030349695  1.0000
  Pb  Pb8       1.0  0.875001701336112  0.33859685745463514  0.4395056969650295  1.0000
  I   I13       1.0  0.8750000330361825  0.3373291840150205  0.002023122701268964  1.0000
  I   I14       1.0  0.6249999669638174  0.6626708159849806  0.9979768772987324  1.0000
  I   I15       1.0  0.8750000330361711  0.8373291840150134  0.49797687729873485  1.0000
  I   I16       1.0  0.6249999669638129  0.16267081598497937  0.5020231227012621  1.0000
  I   I17       1.0  0.6249999703907522  0.02930880270159349  0.11214886481042625  1.0000
  I   I18       1.0  0.8750000296092332  0.9706911972984057  0.8878511351895696  1.0000
  I   I19       1.0  0.6249999703907494  0.5293088027015951  0.3878511351895649  1.0000
  I   I20       1.0  0.8750000296092328  0.47069119729840686  0.6121488648104312  1.0000
  I   I21       1.0  0.6249999479517149  0.2967165179524526  0.7869852407039066  1.0000
  I   I22       1.0  0.8750000520482812  0.7032834820475417  0.2130147592960992  1.0000
  I   I23       1.0  0.6249999479517012  0.7967165179524568  0.7130147592961  1.0000
  I   I24       1.0  0.8750000520482655  0.20328348204754532  0.2869852407039032  1.0000
