data_image0
_chemical_formula_structural       I3H6CPbNI3H6CPbNI3H6CPbNI3H6CPbN
_chemical_formula_sum              "I12 H24 C4 Pb4 N4"
_cell_length_a       6.54042973538
_cell_length_b       12.771406323939999
_cell_length_c       12.9682198874
_cell_angle_alpha    89.95956431539999
_cell_angle_beta     90.7082806322
_cell_angle_gamma    89.92998496549998

_space_group_name_H-M_alt    "P 1"
_space_group_IT_number       1

loop_
  _space_group_symop_operation_xyz
  'x, y, z'

loop_
  _atom_site_type_symbol
  _atom_site_label
  _atom_site_symmetry_multiplicity
  _atom_site_fract_x
  _atom_site_fract_y
  _atom_site_fract_z
  _atom_site_occupancy
  I   I1        1.0  0.36071252852036484  0.4990195095699734  0.026758352139329967  1.0000
  I   I2        1.0  0.839037490244025  0.9998088293091414  0.2601025748754464  1.0000
  I   I3        1.0  0.8393011103057031  0.24936585524771407  0.48970422918955997  1.0000
  H   H1        1.0  0.5762106092336311  0.2504069343999278  0.14659861926517664  1.0000
  H   H2        1.0  0.6422124632781433  0.18505304534259792  0.2533395322392663  1.0000
  H   H3        1.0  0.6400807866166653  0.31768899911553977  0.25298643459687115  1.0000
  H   H4        1.0  0.2721922025229019  0.17815712662425323  0.23128982329651793  1.0000
  H   H5        1.0  0.3431208449360513  0.2495028829003143  0.34565136156896753  1.0000
  H   H6        1.0  0.26750558393803037  0.318984214740537  0.23057285779561934  1.0000
  C   C1        1.0  0.3452076003183943  0.24934583304420496  0.26115630411491664  1.0000
  Pb  Pb1       1.0  0.8985325615046421  0.49940147459805806  0.01005812410470026  1.0000
  N   N1        1.0  0.5621936390641568  0.25099116413531564  0.22686055398401464  1.0000
  I   I4        1.0  0.3607125272312265  0.49901953246385955  0.526758365847185  1.0000
  I   I5        1.0  0.8390374955758654  0.9998088082051972  0.7601025858293254  1.0000
  I   I6        1.0  0.8393011268075687  0.2493658594406318  0.989704232180403  1.0000
  H   H7        1.0  0.5762105491095394  0.25040692823727867  0.6465986053459469  1.0000
  H   H8        1.0  0.6422124341766043  0.18505303694170572  0.753339540868778  1.0000
  H   H9        1.0  0.6400807651328194  0.31768902115382736  0.7529864511038147  1.0000
  H   H10       1.0  0.2721921827895174  0.17815713532409763  0.7312898299377242  1.0000
  H   H11       1.0  0.3431208136144393  0.24950289282060611  0.8456513346100336  1.0000
  H   H12       1.0  0.26750553708241587  0.31898420350920953  0.730572876817835  1.0000
  C   C2        1.0  0.34520764469132875  0.2493458391445498  0.7611562979858312  1.0000
  Pb  Pb2       1.0  0.8985325706915938  0.49940145728339247  0.5100581430726235  1.0000
  N   N2        1.0  0.5621936235160335  0.2509911534720108  0.7268605432338979  1.0000
  I   I7        1.0  0.36066325359433005  0.9990195551737867  0.02673614358558575  1.0000
  I   I8        1.0  0.8397422956589652  0.4998066400892071  0.26019891373666815  1.0000
  I   I9        1.0  0.8393013128289323  0.7493604258381559  0.4897037971085271  1.0000
  H   H13       1.0  0.5762212815008986  0.7492622244035132  0.14659819266646296  1.0000
  H   H14       1.0  0.6429092581814901  0.6834334369494428  0.25354878514061746  1.0000
  H   H15       1.0  0.6394175990024631  0.8160577891513752  0.2527840438544332  1.0000
  H   H16       1.0  0.271008984001676  0.6777299744573693  0.2313833757088562  1.0000
  H   H17       1.0  0.3431249095204589  0.7492857274560627  0.34565304143556075  1.0000
  H   H18       1.0  0.2686872315576368  0.8185729745935422  0.23048982649745564  1.0000
  C   C3        1.0  0.34521124164151396  0.748574019074689  0.2611606545286384  1.0000
  Pb  Pb3       1.0  0.8985453750891019  0.9994042346762454  0.0100524192043098  1.0000
  N   N3        1.0  0.5622143597210124  0.7491418692179073  0.2268635141348321  1.0000
  I   I10       1.0  0.3606632554283245  0.9990195494890947  0.5267361482707841  1.0000
  I   I11       1.0  0.8397422715614024  0.499806681146797  0.7601989317994352  1.0000
  I   I12       1.0  0.8393013541274917  0.749360439911865  0.9897037628551454  1.0000
  H   H19       1.0  0.5762212735590607  0.7492622545428492  0.6465982049807875  1.0000
  H   H20       1.0  0.6429092629467865  0.6834334300390719  0.7535488293961419  1.0000
  H   H21       1.0  0.6394175874395492  0.816057782991409  0.7527840720635764  1.0000
  H   H22       1.0  0.2710090284125416  0.6777299824471709  0.731383379210383  1.0000
  H   H23       1.0  0.34312487478783893  0.7492857407329977  0.8456530294254342  1.0000
  H   H24       1.0  0.2686872610123801  0.8185729779752752  0.7304898411393713  1.0000
  C   C4        1.0  0.3452112645047804  0.7485740207219231  0.7611606590593782  1.0000
  Pb  Pb4       1.0  0.8985453671127126  0.9994042584355876  0.5100524406911593  1.0000
  N   N4        1.0  0.5622144060413243  0.7491418645359375  0.7268635357707072  1.0000
