data_image0
_chemical_formula_structural       Cs4Pb4Cl12Cs4Pb4Cl12
_chemical_formula_sum              "Cs8 Pb8 Cl24"
_cell_length_a       11.11826432
_cell_length_b       11.13439393
_cell_length_c       11.52713296
_cell_angle_alpha    90.0
_cell_angle_beta     90.0
_cell_angle_gamma    90.0

_space_group_name_H-M_alt    "P 1"
_space_group_IT_number       1

loop_
  _space_group_symop_operation_xyz
  'x, y, z'

loop_
  _atom_site_type_symbol
  _atom_site_label
  _atom_site_symmetry_multiplicity
  _atom_site_fract_x
  _atom_site_fract_y
  _atom_site_fract_z
  _atom_site_occupancy
  Cs  Cs1       1.0  1.0930621062634833e-25  0.9949780866651978  0.2499999999999964  1.0000
  Cs  Cs2       1.0  0.4999999999999999  0.9897923772762214  0.24999999999999833  1.0000
  Cs  Cs3       1.0  0.4999999999999999  0.4949780866690626  0.2499999999999977  1.0000
  Cs  Cs4       1.0  0.0  0.4897923772769771  0.24999999999999764  1.0000
  Pb  Pb1       1.0  0.25064392888135856  0.24280356030243516  0.0  1.0000
  Pb  Pb2       1.0  0.24935608147478738  0.7428035603018245  0.0  1.0000
  Pb  Pb3       1.0  0.7506439285252126  0.7428035603018245  0.0  1.0000
  Pb  Pb4       1.0  0.7493560811186414  0.24280356030243516  0.0  1.0000
  Cl  Cl1       1.0  0.19124615181400345  0.4932145095711712  0.0  1.0000
  Cl  Cl2       1.0  0.2489625896776382  0.740669568361154  0.24999999999999822  1.0000
  Cl  Cl3       1.0  0.2510374105821132  0.24066956836235204  0.24999999999999573  1.0000
  Cl  Cl4       1.0  0.0  0.8046839661904902  0.0  1.0000
  Cl  Cl5       1.0  0.4999999999999999  0.6851724831097041  0.0  1.0000
  Cl  Cl6       1.0  0.308753848403669  0.9932145095712069  0.0  1.0000
  Cl  Cl7       1.0  0.6912461515963311  0.9932145095712069  0.0  1.0000
  Cl  Cl8       1.0  0.7489625894178866  0.24066956836235204  0.24999999999999573  1.0000
  Cl  Cl9       1.0  0.7510374203223616  0.740669568361154  0.24999999999999822  1.0000
  Cl  Cl10      1.0  0.4999999999999999  0.3046839661249425  0.0  1.0000
  Cl  Cl11      1.0  0.0  0.18517248304716008  0.0  1.0000
  Cl  Cl12      1.0  0.8087538481859964  0.4932145095711712  0.0  1.0000
  Cs  Cs5       1.0  1.0930621062634833e-25  0.9949780866651978  0.7500000000000034  1.0000
  Cs  Cs6       1.0  0.4999999999999999  0.9897923772762214  0.7500000000000017  1.0000
  Cs  Cs7       1.0  0.4999999999999999  0.4949780866690626  0.7500000000000022  1.0000
  Cs  Cs8       1.0  0.0  0.4897923772769771  0.7500000000000022  1.0000
  Pb  Pb5       1.0  0.250643928881358  0.2428035603024353  0.49999999999999994  1.0000
  Pb  Pb6       1.0  0.24935608147478766  0.7428035603018255  0.49999999999999994  1.0000
  Pb  Pb7       1.0  0.7506439285252122  0.7428035603018255  0.49999999999999994  1.0000
  Pb  Pb8       1.0  0.7493560811186419  0.2428035603024353  0.49999999999999994  1.0000
  Cl  Cl13      1.0  0.19124615181400245  0.49321450957117313  0.49999999999999994  1.0000
  Cl  Cl14      1.0  0.2489625896776382  0.740669568361154  0.7500000000000017  1.0000
  Cl  Cl15      1.0  0.2510374105821132  0.24066956836235204  0.7500000000000042  1.0000
  Cl  Cl16      1.0  0.0  0.804683966190491  0.49999999999999994  1.0000
  Cl  Cl17      1.0  0.4999999999999999  0.6851724831097047  0.49999999999999994  1.0000
  Cl  Cl18      1.0  0.30875384840366976  0.9932145095712062  0.49999999999999994  1.0000
  Cl  Cl19      1.0  0.6912461515963303  0.9932145095712062  0.49999999999999994  1.0000
  Cl  Cl20      1.0  0.7489625894178866  0.24066956836235204  0.7500000000000042  1.0000
  Cl  Cl21      1.0  0.7510374203223616  0.740669568361154  0.7500000000000017  1.0000
  Cl  Cl22      1.0  0.4999999999999999  0.3046839661249445  0.49999999999999994  1.0000
  Cl  Cl23      1.0  0.0  0.18517248304716072  0.49999999999999994  1.0000
  Cl  Cl24      1.0  0.8087538481859975  0.49321450957117313  0.49999999999999994  1.0000
