data_image0
_chemical_formula_structural       I3H6CGeNI3H6CGeNI3H6CGeNI3H6CGeN
_chemical_formula_sum              "I12 H24 C4 Ge4 N4"
_cell_length_a       6.33850520346
_cell_length_b       12.32069288836
_cell_length_c       12.3987672107
_cell_angle_alpha    91.05975151220001
_cell_angle_beta     94.82392592719998
_cell_angle_gamma    88.08463091229999

_space_group_name_H-M_alt    "P 1"
_space_group_IT_number       1

loop_
  _space_group_symop_operation_xyz
  'x, y, z'

loop_
  _atom_site_type_symbol
  _atom_site_label
  _atom_site_symmetry_multiplicity
  _atom_site_fract_x
  _atom_site_fract_y
  _atom_site_fract_z
  _atom_site_occupancy
  I   I1        1.0  0.35516932581240684  0.4971963259532117  0.019102411856371487  1.0000
  I   I2        1.0  0.8578943835043503  0.49717650181992656  0.26555317337907763  1.0000
  I   I3        1.0  0.8773301777551172  0.24059617708531159  0.4986081089743403  1.0000
  H   H1        1.0  0.5226135324025201  0.25315560256194747  0.1353094625884658  1.0000
  H   H2        1.0  0.6438984018894742  0.18309264978872758  0.23789751140694473  1.0000
  H   H3        1.0  0.6311485013498239  0.32054743794055746  0.2430932394493059  1.0000
  H   H4        1.0  0.26224156378026636  0.1733537795048385  0.2438217410410885  1.0000
  H   H5        1.0  0.37972607597572966  0.24608460692110984  0.3594927078025739  1.0000
  H   H6        1.0  0.24448714356181778  0.31937182480998344  0.24873261276440453  1.0000
  C   C1        1.0  0.3429476396045406  0.2473340525077622  0.27162556649950054  1.0000
  Ge  Ge1       1.0  0.9243713238553259  0.015473355778374486  0.49372381154255784  1.0000
  N   N1        1.0  0.5458546092084453  0.2515270548080161  0.21921681936887302  1.0000
  I   I4        1.0  0.35518348411089534  0.49719494748580856  0.5190893166102449  1.0000
  I   I5        1.0  0.8578808808321211  0.49717738073402223  0.7655611728969446  1.0000
  I   I6        1.0  0.8771570480054053  0.2406011518535025  0.9986151334599463  1.0000
  H   H7        1.0  0.522396568576365  0.2531493070766732  0.6347478620314951  1.0000
  H   H8        1.0  0.6437168304397837  0.1831527415608438  0.7375649337363595  1.0000
  H   H9        1.0  0.6309639707496741  0.32045763968277524  0.7427439964926017  1.0000
  H   H10       1.0  0.2621978920933347  0.17335205629217826  0.7438224984827928  1.0000
  H   H11       1.0  0.3801643368276334  0.2460963202105963  0.8593294514570193  1.0000
  H   H12       1.0  0.24446498512826  0.31937004046896544  0.7487285912527152  1.0000
  C   C2        1.0  0.34303623139711675  0.24733422576425285  0.7714599864750489  1.0000
  Ge  Ge2       1.0  0.9243728957467819  0.015472091102237566  0.9937261443722873  1.0000
  N   N2        1.0  0.5456241218586393  0.25151272569027416  0.7186304507624844  1.0000
  I   I7        1.0  0.35516011766427097  0.9971824259439759  0.019101318925486888  1.0000
  I   I8        1.0  0.8577001139565362  0.9971734428421384  0.2655301243034198  1.0000
  I   I9        1.0  0.8773339278819013  0.7405982371619326  0.4986067985537435  1.0000
  H   H13       1.0  0.5226469954768832  0.7528809458367437  0.13531161572138317  1.0000
  H   H14       1.0  0.6441865093105691  0.682652308148937  0.23793398095190257  1.0000
  H   H15       1.0  0.6309746131157055  0.8201123421040492  0.24303638801960056  1.0000
  H   H16       1.0  0.26197723018016095  0.6732572139255357  0.2438645634919502  1.0000
  H   H17       1.0  0.37972648952209914  0.7460403149164897  0.35949553620335056  1.0000
  H   H18       1.0  0.24478162712275878  0.81928468253192  0.24868598578151035  1.0000
  C   C3        1.0  0.34297232996223287  0.7471439939438398  0.2716235644159964  1.0000
  Ge  Ge3       1.0  0.9243771966573067  0.5154896977536576  0.4937320106766584  1.0000
  N   N3        1.0  0.5459237711431677  0.7509831793634694  0.21920839181908347  1.0000
  I   I10       1.0  0.3551744345709544  0.9971809724854614  0.5190882802920286  1.0000
  I   I11       1.0  0.8576866206479499  0.9971743821253529  0.7655378875415609  1.0000
  I   I12       1.0  0.8771605559680016  0.7406030015816418  0.9986138984318209  1.0000
  H   H19       1.0  0.5224299900024265  0.7528752541308701  0.6347505278663488  1.0000
  H   H20       1.0  0.644005752328936  0.6827119792899031  0.7376023003843046  1.0000
  H   H21       1.0  0.6307895047822152  0.8200221869393666  0.742686797793044  1.0000
  H   H22       1.0  0.26193348676560635  0.6732555162923977  0.7438655758477484  1.0000
  H   H23       1.0  0.38016461416199226  0.7460515840915396  0.8593324511382895  1.0000
  H   H24       1.0  0.24475953790987093  0.819282905945179  0.7486818161081702  1.0000
  C   C4        1.0  0.34306092333654425  0.7471439587615812  0.7714581794331242  1.0000
  Ge  Ge4       1.0  0.9243787671530841  0.5154882693912645  0.9937344183809536  1.0000
  N   N4        1.0  0.5456934142453024  0.7509672418748475  0.7186224097542137  1.0000
