data_image0
_chemical_formula_structural       CsPbBr3CsPbBr3CsPbBr3CsPbBr3CsPbBr3CsPbBr3CsPbBr3CsPbBr3
_chemical_formula_sum              "Cs8 Pb8 Br24"
_cell_length_a       11.89726164
_cell_length_b       11.89726164
_cell_length_c       11.89726164
_cell_angle_alpha    90.0
_cell_angle_beta     90.0
_cell_angle_gamma    90.0

_space_group_name_H-M_alt    "P 1"
_space_group_IT_number       1

loop_
  _space_group_symop_operation_xyz
  'x, y, z'

loop_
  _atom_site_type_symbol
  _atom_site_label
  _atom_site_symmetry_multiplicity
  _atom_site_fract_x
  _atom_site_fract_y
  _atom_site_fract_z
  _atom_site_occupancy
  Cs  Cs1       1.0  0.0  0.0  0.0  1.0000
  Pb  Pb1       1.0  0.24999999999999994  0.24999999999999994  0.24999999999999994  1.0000
  Br  Br1       1.0  0.24999999999999994  0.24999999999999994  0.0  1.0000
  Br  Br2       1.0  0.24999999999999994  0.0  0.24999999999999994  1.0000
  Br  Br3       1.0  0.0  0.24999999999999994  0.24999999999999994  1.0000
  Cs  Cs2       1.0  0.0  0.0  0.4999999999999999  1.0000
  Pb  Pb2       1.0  0.24999999999999994  0.24999999999999994  0.7499999999999999  1.0000
  Br  Br4       1.0  0.24999999999999994  0.24999999999999994  0.4999999999999999  1.0000
  Br  Br5       1.0  0.24999999999999994  0.0  0.7499999999999999  1.0000
  Br  Br6       1.0  0.0  0.24999999999999994  0.7499999999999999  1.0000
  Cs  Cs3       1.0  0.0  0.4999999999999999  0.0  1.0000
  Pb  Pb3       1.0  0.24999999999999994  0.7499999999999999  0.24999999999999994  1.0000
  Br  Br7       1.0  0.24999999999999994  0.7499999999999999  0.0  1.0000
  Br  Br8       1.0  0.24999999999999994  0.4999999999999999  0.24999999999999994  1.0000
  Br  Br9       1.0  0.0  0.7499999999999999  0.24999999999999994  1.0000
  Cs  Cs4       1.0  0.0  0.4999999999999999  0.4999999999999999  1.0000
  Pb  Pb4       1.0  0.24999999999999994  0.7499999999999999  0.7499999999999999  1.0000
  Br  Br10      1.0  0.24999999999999994  0.7499999999999999  0.4999999999999999  1.0000
  Br  Br11      1.0  0.24999999999999994  0.4999999999999999  0.7499999999999999  1.0000
  Br  Br12      1.0  0.0  0.7499999999999999  0.7499999999999999  1.0000
  Cs  Cs5       1.0  0.4999999999999999  0.0  0.0  1.0000
  Pb  Pb5       1.0  0.7499999999999999  0.24999999999999994  0.24999999999999994  1.0000
  Br  Br13      1.0  0.7499999999999999  0.24999999999999994  0.0  1.0000
  Br  Br14      1.0  0.7499999999999999  0.0  0.24999999999999994  1.0000
  Br  Br15      1.0  0.4999999999999999  0.24999999999999994  0.24999999999999994  1.0000
  Cs  Cs6       1.0  0.4999999999999999  0.0  0.4999999999999999  1.0000
  Pb  Pb6       1.0  0.7499999999999999  0.24999999999999994  0.7499999999999999  1.0000
  Br  Br16      1.0  0.7499999999999999  0.24999999999999994  0.4999999999999999  1.0000
  Br  Br17      1.0  0.7499999999999999  0.0  0.7499999999999999  1.0000
  Br  Br18      1.0  0.4999999999999999  0.24999999999999994  0.7499999999999999  1.0000
  Cs  Cs7       1.0  0.4999999999999999  0.4999999999999999  0.0  1.0000
  Pb  Pb7       1.0  0.7499999999999999  0.7499999999999999  0.24999999999999994  1.0000
  Br  Br19      1.0  0.7499999999999999  0.7499999999999999  0.0  1.0000
  Br  Br20      1.0  0.7499999999999999  0.4999999999999999  0.24999999999999994  1.0000
  Br  Br21      1.0  0.4999999999999999  0.7499999999999999  0.24999999999999994  1.0000
  Cs  Cs8       1.0  0.4999999999999999  0.4999999999999999  0.4999999999999999  1.0000
  Pb  Pb8       1.0  0.7499999999999999  0.7499999999999999  0.7499999999999999  1.0000
  Br  Br22      1.0  0.7499999999999999  0.7499999999999999  0.4999999999999999  1.0000
  Br  Br23      1.0  0.7499999999999999  0.4999999999999999  0.7499999999999999  1.0000
  Br  Br24      1.0  0.4999999999999999  0.7499999999999999  0.7499999999999999  1.0000
